# generated using pymatgen
data_Pd
_symmetry_space_group_name_H-M   'P 1'
_cell_length_a   19.38126125
_cell_length_b   19.31045379
_cell_length_c   18.35096047
_cell_angle_alpha   90.00000000
_cell_angle_beta   90.00000000
_cell_angle_gamma   90.00000000
_symmetry_Int_Tables_number   1
_chemical_formula_structural   Pd
_chemical_formula_sum   Pd38
_cell_volume   6868.04789451
_cell_formula_units_Z   38
loop_
 _symmetry_equiv_pos_site_id
 _symmetry_equiv_pos_as_xyz
  1  'x, y, z'
loop_
 _atom_site_type_symbol
 _atom_site_label
 _atom_site_symmetry_multiplicity
 _atom_site_fract_x
 _atom_site_fract_y
 _atom_site_fract_z
 _atom_site_occupancy
  Pd  Pd0  1  0.43630497  0.59759088  0.67304165  1
  Pd  Pd1  1  0.43540295  0.46365862  0.44322686  1
  Pd  Pd2  1  0.55565189  0.68928747  0.45657609  1
  Pd  Pd3  1  0.30967227  0.45956220  0.44710758  1
  Pd  Pd4  1  0.42882978  0.68457699  0.45949755  1
  Pd  Pd5  1  0.36413184  0.57488663  0.45156876  1
  Pd  Pd6  1  0.62785882  0.58468209  0.44549355  1
  Pd  Pd7  1  0.37698220  0.35189118  0.43799796  1
  Pd  Pd8  1  0.69042261  0.47370413  0.43833670  1
  Pd  Pd9  1  0.50410309  0.35098429  0.43262544  1
  Pd  Pd10  1  0.56469362  0.46846080  0.44024853  1
  Pd  Pd11  1  0.42892443  0.61799245  0.34519778  1
  Pd  Pd12  1  0.55574652  0.62270296  0.34227635  1
  Pd  Pd13  1  0.36927906  0.50535915  0.33899588  1
  Pd  Pd14  1  0.56369526  0.40240915  0.32695837  1
  Pd  Pd15  1  0.62320733  0.51479074  0.33314641  1
  Pd  Pd16  1  0.63091046  0.36132258  0.43214868  1
  Pd  Pd17  1  0.49607343  0.57822771  0.44953537  1
  Pd  Pd18  1  0.57117010  0.31542294  0.54050245  1
  Pd  Pd19  1  0.30957736  0.52629586  0.56166335  1
  Pd  Pd20  1  0.63072097  0.49464073  0.66100416  1
  Pd  Pd21  1  0.50390628  0.48944698  0.67031215  1
  Pd  Pd22  1  0.37679268  0.48520938  0.66685359  1
  Pd  Pd23  1  0.44425333  0.37729705  0.65772369  1
  Pd  Pd24  1  0.57107545  0.38200744  0.65480222  1
  Pd  Pd25  1  0.56341113  0.60231181  0.67011361  1
  Pd  Pd26  1  0.36908952  0.63867741  0.56785145  1
  Pd  Pd27  1  0.43658906  0.39768813  0.32988628  1
  Pd  Pd28  1  0.63586814  0.42511336  0.54843130  1
  Pd  Pd29  1  0.69032774  0.54043781  0.55289248  1
  Pd  Pd30  1  0.43530641  0.53153923  0.55975146  1
  Pd  Pd31  1  0.56459709  0.53634136  0.55677312  1
  Pd  Pd32  1  0.37214120  0.41531796  0.55450643  1
  Pd  Pd33  1  0.44434800  0.31071254  0.54342388  1
  Pd  Pd34  1  0.62301781  0.64810890  0.56200191  1
  Pd  Pd35  1  0.50392653  0.42177232  0.55046462  1
  Pd  Pd36  1  0.49589691  0.64901577  0.56737452  1
  Pd  Pd37  1  0.49609375  0.51055298  0.32968779  1
